 9
  -154.9993392200000
C   -0.0036313  -0.5780009  -0.0000000   0.0009904   0.0026941  -0.0000000
C    1.2664198   0.2521764   0.0000000  -0.0027583  -0.0022416   0.0000000
O   -1.1217891   0.3249740  -0.0000000   0.0051944   0.0093026   0.0000000
H   -0.0319603  -1.2310809   0.8929014   0.0003321  -0.0031226   0.0036270
H   -0.0319604  -1.2310807  -0.8929015   0.0003320  -0.0031226  -0.0036270
H    1.3080868   0.8947808   0.8905966   0.0001840   0.0022420   0.0031361
H    1.3080894   0.8947772  -0.8905990   0.0001840   0.0022420  -0.0031361
H    2.1513915  -0.3996529   0.0000027   0.0025960  -0.0019440   0.0000000
H   -1.9358381  -0.2057823   0.0000003  -0.0070582  -0.0060703   0.0000000
